713

N1   0.0000000000   0.0000000000   1.4134020000
C2  -0.0000000000   1.1438700000   0.7194680000
C3  -0.0000000000  -1.1438700000   0.7194680000
C4  -0.0000000000   1.1948380000  -0.6696500000
C5   0.0000000000  -1.1948380000  -0.6696500000
C6   0.0000000000  -0.0000000000  -1.3788900000
H7  -0.0000000000   2.0616300000   1.3014500000
H8   0.0000000000  -2.0616300000   1.3014500000
H9  -0.0000000000   2.1521380000  -1.1786310000
H10  -0.0000000000  -2.1521380000  -1.1786310000
H11  -0.0000000000  -0.0000000000  -2.4639320000
O12   0.7818178838  -6.0282951240   1.5855025458
O13  -5.8554553609  -0.1636522466  -1.6370044823
O14   5.7503660904  -2.2982432558  -4.6429017717
O15   1.8411314585  -7.4711228447  -0.3906752792
O16  -3.7630365255   0.4684964506   6.9090955400
O17   1.6458603599  -0.3804984937   4.0855823040
O18  -3.0141273994   3.9541463792  -2.1156948943
O19   1.5870961442   4.9427659654   0.8543136318
O20   1.4886891746   7.6083268033   1.1737060383
O21  -2.7969667515  -7.1596732509   1.5959769759
O22   2.4853423855  -4.9892342419   3.5080916847
O23   0.3443391305  -4.8781206947  -3.8108292491
O24  -2.3316542414  -1.9582858886   6.6713694917
O25   5.2618420982  -3.6660540251   3.3157125446
O26  -0.8889717482   3.9245020727   6.3574644947
O27   5.6488419679   2.8129332942   3.8226051166
O28   2.2484083079  -3.3722155030   0.1225231513
O29   0.0760969426   1.3660827261   5.4448545335
O30   2.8289314710  -1.8654492182   2.1563498567
O31   3.1457687209   1.9547856629   0.1931322402
O32   4.8701708058  -0.1481432460   0.6553949095
O33  -1.6314681758   6.5977052103  -0.3735192206
O34  -1.6116036929  -0.0018264632   3.6935253470
O35  -4.4856643260   2.2472008596   1.9897364064
O36   4.2984652248  -5.1058588302   0.8679772565
O37  -3.5294930731  -4.5577112458  -2.3953104671
O38  -2.4889730003   3.3430466056   0.6690065410
O39  -2.4403210497   1.5210050938  -2.9435501176
O40   1.4755043219   0.5130471636  -4.1668460159
O41   0.9342682716   6.8631191409  -1.7623700288
O42  -3.6381203656  -0.5579383800  -4.4907118810
O43  -0.0955472172   4.5238562925  -2.8846129338
O44  -6.5700346418   2.0765278224   0.0587563447
O45  -3.8551425679  -0.3045185423   2.1881557418
O46   0.3401561323  -0.4208489834   7.3663033679
O47  -7.0291936685  -0.0063128199   2.3320326430
O48   2.3714892231  -3.0557541102   5.6024712809
O49  -3.6151808141   2.2084930339   4.6998282011
O50  -5.8202823889   1.0251635589  -5.1949509651
O51   5.7912407423   0.2845092251  -1.7678917101
O52  -5.5554725259   3.6501592147  -1.8155297679
O53   3.1277623586   4.5471353330  -1.7356078461
O54   2.6436133188  -4.0810180354  -5.0161872525
O55   0.1041648623   6.9766765809   3.3756277665
O56  -6.9892434695  -2.9556861762   2.4425929737
O57  -1.2878438119  -4.1846860411   1.7562337409
O58   3.0701238229  -0.6920682950   6.7397498815
O59   7.0878781350   0.2370038163   2.3588252056
O60   3.1875437804   1.8064430557   3.0987809636
O61  -2.9545541522   3.2222716530  -5.3008700669
O62  -3.2643545774  -0.2752146198  -0.4556553963
O63  -4.8579822326  -2.2564538400   3.9055348824
O64   4.0588371964   0.0665169372  -5.3533472207
O65  -3.7161802891  -5.2882943350   3.2994570199
O66  -2.1121068656  -2.3637406689  -2.8231086186
O67   6.3401011581   4.1654944830  -1.7745808583
O68   0.2949846704  -2.1191808032  -5.1406855134
O69   3.7226354533  -3.5579542550  -2.2161703131
O70   6.2535656597  -2.6341223341  -0.9561868335
O71  -1.7898968884  -2.9743713112   4.1741417260
O72  -1.0733318366  -7.5524579423  -0.7470419946
O73   0.3556924008   4.5569109343   3.3644450313
O74   4.2387796195   2.2165203983  -2.6343336387
O75   1.7383652984   3.1834418936  -4.3312490988
O76  -2.4142364036   4.6597931717   3.6636578625
O77   2.3660428534   3.6892351592   4.9653956171
H78   0.6971504565  -6.7429204189   2.2166002836
H79   1.1233027547  -6.4460072920   0.7949034897
H80  -5.8264474508  -0.4615009713  -2.5461727386
H81  -5.0628898265  -0.5256598958  -1.2408573182
H82   5.4053290343  -1.4531334278  -4.3550110831
H83   5.5069027517  -2.9066766411  -3.9452796259
H84   2.1278704337  -8.2949345503   0.0033517172
H85   2.2563100114  -7.4606761490  -1.2530324417
H86  -3.9395322861   0.6882829127   5.9943904522
H87  -4.4222762301   0.9549964054   7.4039319228
H88   0.9734913986  -0.0026860416   4.6524332287
H89   2.2041275108   0.3602569373   3.8494437435
H90  -2.8303518829   3.8234225610  -1.1854905711
H91  -2.7235607256   3.1435366065  -2.5335765096
H92   1.1376767963   4.7061089491   1.6655829744
H93   1.9191356421   4.1123418608   0.5133036345
H94   1.8660821208   8.0836382286   0.4335737169
H95   1.5490486144   6.6867021078   0.9224951732
H96  -3.1530646073  -7.9956967380   1.8966450422
H97  -2.5056742140  -7.3314436566   0.7005520347
H98   3.1639380678  -5.6500324488   3.3702661805
H99   1.8077683193  -5.2042967246   2.8671675446
H100   1.0257303080  -4.4299150676  -4.3117883484
H101  -0.4317457424  -4.3279441177  -3.9163766036
H102  -2.7688424662  -1.1132974452   6.7762657572
H103  -1.9269735624  -1.9128026480   5.8051668233
H104   5.2295129080  -3.4096086182   2.3941200009
H105   4.3454643733  -3.6849642599   3.5914597266
H106  -0.3108196015   4.4151066825   6.9415787405
H107  -1.6923729658   4.4436983970   6.3239398690
H108   6.1480550387   3.5682055206   4.1332373973
H109   5.8668225249   2.1123753884   4.4372963703
H110   1.7959237691  -4.0546810869   0.6181446894
H111   2.4928533930  -2.7208449271   0.7798702538
H112  -0.2149001808   2.2689796417   5.5722910829
H113   0.1309996899   1.0048951127   6.3295417303
H114   2.2669379717  -1.3025493011   2.6887493590
H115   3.5051468680  -1.2782771510   1.8185571090
H116   3.4967016365   1.0708908091   0.3013829505
H117   3.0348642573   2.0544383688  -0.7523368382
H118   5.1904017485   0.0025493560  -0.2339228756
H119   5.6422339562  -0.0370606947   1.2101213273
H120  -1.5326297837   5.7329014083   0.0245857860
H121  -0.7360749137   6.8782695887  -0.5624551245
H122  -1.0074918673   0.1702679502   4.4157266036
H123  -1.0449686171  -0.1349404328   2.9336914164
H124  -4.0751939584   1.3881243678   2.0879397596
H125  -5.2461605623   2.0869432042   1.4310726450
H126   4.4308694275  -5.3916987846  -0.0358517581
H127   3.8169101198  -4.2822816733   0.7907270957
H128  -4.0548509213  -3.9790410766  -2.9478339568
H129  -2.6489588633  -4.1837131073  -2.4257594019
H130  -1.9901399019   3.8408500267   1.3166943777
H131  -3.2156210239   2.9656000972   1.1646465547
H132  -2.5878639355   0.8509446021  -3.6109272781
H133  -2.7844573705   1.1362618977  -2.1375196556
H134   2.3485870407   0.2497747957  -4.4576319619
H135   0.9053382022  -0.2059375514  -4.4390845426
H136   0.7222006039   7.2692645435  -2.6027362919
H137   1.6328538358   7.4091461432  -1.4018496239
H138  -4.3522891999   0.0363569878  -4.7207512949
H139  -3.6770490420  -1.2472466783  -5.1536454131
H140  -0.8559393091   4.5331720116  -2.3033562573
H141   0.3625542368   5.3421338288  -2.6930217767
H142  -6.5131656543   1.1948883260  -0.3095098046
H143  -6.1934394187   2.6424308725  -0.6150923147
H144  -3.0195775124  -0.1496697224   2.6286045142
H145  -4.2586629739  -1.0172166477   2.6835090828
H146  -0.4288115963  -0.1397728220   7.8621128716
H147   0.7584277156  -1.0765740985   7.9241704632
H148  -7.0323453890   0.8002166224   1.8166273992
H149  -6.1055121307  -0.2506690819   2.3889946833
H150   1.7319172260  -2.4012862263   5.3218261501
H151   2.2595266787  -3.7797492552   4.9864861685
H152  -3.7766650045   2.4787467720   3.7959321821
H153  -2.7871068449   2.6290067454   4.9313534911
H154  -6.0885982585   1.8414538337  -4.7732650377
H155  -6.4494484027   0.9047852760  -5.9061481502
H156   6.5714739577   0.5897003311  -2.2307488784
H157   5.0674830971   0.7532513219  -2.1833408138
H158  -5.7389337460   3.7990014568  -2.7430696364
H159  -4.6068124182   3.7521888444  -1.7395284870
H160   2.2523553432   4.8786595602  -1.5358668035
H161   3.6763483666   5.3302583528  -1.7793567616
H162   3.1680829833  -3.3905014920  -4.6108963517
H163   3.2555946887  -4.5406056502  -5.5909917994
H164  -0.1295292521   7.7779345842   3.8441519528
H165   0.4339175648   7.2809846886   2.5301681455
H166  -6.8800911842  -2.5289679873   1.5928049967
H167  -7.9324642457  -2.9314591411   2.6034962307
H168  -0.5560467272  -4.7928789080   1.6527122287
H169  -2.0462225054  -4.6630935032   1.4213751179
H170   2.1555960644  -0.5253427906   6.9677494980
H171   3.0394610836  -1.4650197238   6.1760583657
H172   6.7818317574   0.5848970840   3.1963502076
H173   7.8592639569   0.7631165941   2.1483222397
H174   4.0574285223   2.2027502293   3.1476010421
H175   2.9558007484   1.8506664373   2.1711594354
H176  -2.5839017486   2.6758007157  -5.9937831569
H177  -2.3937082810   3.0605166046  -4.5422994024
H178  -3.4331154867  -0.2000518405   0.4834998369
H179  -2.3908918705  -0.6625656695  -0.5119075429
H180  -4.8462718860  -2.6408765212   4.7820189438
H181  -5.5952181254  -2.6814214055   3.4673248338
H182   4.0988548540   0.3737411280  -6.2589708311
H183   4.1149425351   0.8640288158  -4.8270685545
H184  -4.5502613580  -5.3223953744   2.8311749153
H185  -3.1166405662  -5.8024767787   2.7587992953
H186  -1.2691628801  -2.0174941536  -3.1158559976
H187  -2.7621018814  -1.8312980992  -3.2815337809
H188   5.5977238848   4.5476172039  -1.3066060189
H189   6.9566149287   4.8902455771  -1.8784503060
H190   1.1985675725  -2.2798239869  -5.4124831341
H191  -0.2124409968  -2.1758528236  -5.9502840029
H192   3.1081031118  -3.3718442316  -1.5063426577
H193   4.5869313820  -3.4517702110  -1.8188546496
H194   6.0985997984  -1.7812876408  -1.3621434910
H195   6.7937211852  -2.4402650792  -0.1901622824
H196  -2.6725943894  -3.0189742259   3.8067210656
H197  -1.2105990214  -3.0737483884   3.4187077992
H198  -0.2567466032  -7.4980379651  -0.2506860108
H199  -0.7950486164  -7.7023783717  -1.6504934622
H200   0.4715421270   5.5068670026   3.3469936962
H201  -0.5890597711   4.4291285734   3.2792555836
H202   3.5617686851   2.8929995976  -2.6211303182
H203   5.0417888572   2.6763497862  -2.3896392618
H204   1.6651560791   2.2450634176  -4.1573856871
H205   0.9969626937   3.5717431183  -3.8668284095
H206  -2.8363424587   5.3661308775   3.1747245709
H207  -2.4815580031   4.9289607981   4.5797139914
H208   1.4641196791   3.8311402134   4.6780982396
H209   2.7104577455   3.0338653270   4.3587565110
O210  -2.2637585064 -10.6342600034  -3.1282496617
O211   5.6954036719  -6.7827815983   7.8294098478
O212  -9.7803440046   3.8504670590  -5.4527340679
O213   3.4541534968   7.7342861330   8.4204263529
O214   4.4239086572   6.3641515744  -7.2846771006
O215   8.4286059027   2.2297437475  -1.5950397850
O216  -6.9096018052   2.4371084128  -9.2263457612
O217   4.9487012435   5.7949013521   5.3370409699
O218   2.8794961035  -9.6536785566  -3.3981843883
O219   6.9584520055   0.8964305722  -6.3607040438
O220 -10.3116874974   3.4895829674  -0.5379270479
O221  -2.3033145950   6.0975124265  -6.0015996050
O222  -0.1842516247 -11.0003063155  -1.0093351456
O223  -3.1505589048   8.8310427557   0.5544746732
O224  -1.0665964110  -2.1804789560 -11.0179247322
O225  -0.9609098518  -2.6322390702  -7.4700503403
O226   2.9286110186  -0.1382967984  10.8347778289
O227   2.5658117134   2.4818898610   7.3624284977
O228   1.0876809551  -8.4752812389   3.0795399118
O229  -1.1310962950   2.3261086736  10.6772342819
O230   0.4102721542  -7.7813193108  -3.4570423892
O231  -0.3552826874   2.6286264792 -10.5850228068
O232   0.8142640912  -1.6000809796  10.0077834181
O233   8.6437037037  -7.2071859125  -1.5631228536
O234   5.4578699278  -9.7912497256  -2.6666096728
O235  -2.2717116749  -7.5321318115  -6.8281044132
O236  -7.0982257656   3.4118959093  -4.5725717088
O237   7.9280444158  -0.4836722014  -8.5322410952
O238  -8.8378995106   4.9779446714  -2.9427037903
O239  -6.9204736653   6.1942214480  -1.0750861449
O240   7.8844728126  -3.9759945498   3.6117461029
O241  -4.8253134701  -4.0590553258   5.8864623666
O242  -0.2685435145   9.4374648905   4.7797405403
O243   4.8308002144   6.7187168869  -2.5258066358
O244  -7.6753717004  -5.6364894005  -5.4044408200
O245  -7.7612896377  -0.0527163581  -6.9091755941
O246  -6.6059824573  -5.4745774828   2.5662460521
O247   0.2678360748  -7.0956498125  -9.5285846319
O248  -3.2174417774   5.4847998811   6.1791174259
O249   0.4181117522   6.0943145014  -9.8222554285
O250  -5.7668163184   8.6229734518  -0.1113333136
O251  -5.0666458747   4.4113600860  -6.3401976965
O252  -1.4485527923   9.1377904243  -5.3929267691
O253   6.0607520042  -6.6371127969  -1.3672363668
O254   2.1989571631  -7.1901002163   6.3908893738
O255  10.2040840988   2.0561855528  -4.2909388806
O256   3.2019813802  -7.8778359286  -7.7906825212
O257   1.5038074596  -2.4569685287  -8.1068804791
O258  -3.2613058643  -8.3299570040  -1.9469692328
O259  -8.9559802112   3.3569007735   6.0657960096
O260  -2.5050848518   9.7830726860   3.2339619117
O261  -3.9383933395  -2.7862729311  -6.4263068293
O262   2.0137788917   6.4335557591   5.8724714449
O263  -9.6425104733  -2.9611491927   1.9886057124
O264  -6.0378721632  -4.1240892691  -3.9765068639
O265  -5.2654967666  -6.4659021145  -1.2712114627
O266  -8.5225148502  -0.3980907599  -2.7810259748
O267  -7.8960237959  -0.3250455685   7.6731923647
O268  -8.5063150368   2.8542067385   2.0384311330
O269   7.3869765063   7.0311083545  -3.7974158274
O270   4.1020934881  -4.1205745242   7.4564146687
O271   5.7888341072  -2.2459912837  -7.4951866625
O272  -5.2780516310   9.6017533065   3.8009879178
O273   0.8260679653   5.0504015779   7.9999443417
O274   3.8975949331   4.8132315856   8.5380430551
O275   9.0813738063   2.0611690292   1.6489818820
O276   5.4539894545  -5.8705675729  -4.1364718904
O277  -0.5210545935   0.0855362156  -9.0901778376
O278  -5.0716733115   4.2704077819  -9.5541749013
O279  -5.9281772207  -7.6809405548   1.0378574387
O280   8.6269568916  -2.8627563587  -6.6015295417
O281  -7.3550354227  -3.2339671322  -6.9911424167
O282   7.1189163113   6.8483755061  -0.5532850141
O283   8.5885746777  -5.3152584055   0.5739944652
O284   8.3746917865  -2.1125712251   1.2628290079
O285   0.9215821459   8.2028524747  -4.1708414927
O286  -3.9501015960   6.9941831125   3.3078224139
O287   3.3163687942  -0.0674552298 -10.8451989373
O288  -4.5336290847  -5.3494908560  -7.2047645124
O289  10.2288834301  -1.0436756623  -3.8151825659
O290   2.5661383327   4.0624148410  -6.7328626035
O291  -7.1466767045   7.2375182155   3.1057124548
O292   2.2059362648  -5.1261681446  -9.0096637751
O293   0.6334504146  -6.9471207085  -6.4286109613
O294   0.0398546544  -5.9017191679   7.7626414088
O295  -4.6799997362   6.0331448229  -3.4811801564
O296   8.3776029174   5.1017994564   1.6305219165
O297   9.7352425127   0.6087530850   3.9547946337
O298  -5.8658353165   6.2862071927   6.5788243269
O299   0.2900101908   8.1830460197  -8.1739540110
O300  -3.5816243645  -3.8869148474   8.8623348696
O301  -0.2629056956 -10.7765951871   3.7992779244
O302  11.3286873450  -0.1353980600  -1.1766535177
O303  -6.0866607539  -8.3867011891  -3.2354531203
O304 -10.5549147623  -2.2919662120  -2.3781589806
O305  -4.3074196254   2.6818418211  10.4192453398
O306   8.7692906511   4.8672332651  -5.5024346115
O307 -10.4261966888  -5.1995272472  -2.7801230187
O308  -4.6978899570   0.5105613589  -9.4119921563
O309   6.5138398554   2.6024901644   9.0689338010
O310  -9.5874610432  -3.4219992847   6.2739954274
O311   6.4230179690  -2.8685516629   7.3269692273
O312  -6.8882038542   7.5578075927  -4.4126257224
O313   0.3155816650   6.2297328793  -6.0773050618
O314  -2.7415289416  -1.7221286097  10.7209352600
O315   6.8101336446  -9.6216790621   2.1178265268
O316  -1.0025867048   2.5982758165  -7.6510968925
O317   6.4364953347   6.5955482861   3.1401791865
O318  -0.1297012582 -10.2230576419  -5.6867322375
O319   2.4411575288   9.2998946230   4.6456753700
O320  -6.9282255634  -2.9349168851   6.6871493267
O321  -6.3349405553   6.5928372314  -7.0120145982
O322   1.6072963638  10.8352511560  -2.6347011356
O323   5.1451776011  10.5165439155  -1.2615506126
O324  -9.9531752127   0.7112716559   2.5167128187
O325   8.1725444345  -5.1929619270  -5.2492143028
O326  -3.7022127485  -7.3660699784   5.4086391989
O327   4.8944261833  -9.0296735446   0.0081631164
O328   1.8749428769   0.4678839344  -8.0030651944
O329   4.3372003224  -3.1255639293  10.0201263126
O330  -2.6723899207  -9.9135581576   4.3589430734
O331 -10.8752586310   0.9883083410  -1.7057503659
O332   7.5101160567   1.2028509847  -3.8489429678
O333   7.3844998610   1.0010811869   5.1428210885
O334   4.6133476235   1.9785125392  -7.6225023372
O335   3.3456010067  -6.8235271517  -2.8253089996
O336  10.0281228868  -2.9245341366  -1.8921364858
O337   5.0174558967  -4.5586628020  -8.6448568383
O338   4.8548797210  -0.5607057027   8.8654358700
O339  -0.5504775199  10.7741729833   0.4241632144
O340   2.3051799519  -5.3426308197  10.4569337377
O341   2.3595073512 -10.3123842387  -0.3990963341
O342  11.1024212695   2.6278937743  -0.8265467115
O343  -1.8206746107  -7.8336253902   8.6160414401
O344 -10.2811659087  -0.1415216850   6.0640441989
O345  -7.1805412336  -4.6705601449  -0.8899374655
O346  -2.8950659773  -0.6863825682  -8.0242897995
O347   7.8562579202   0.0446564958   7.5604843737
O348   1.6419917047   2.4266969868  10.0034432319
O349  10.8286968473  -0.7631075396   1.7236293365
O350  -8.0934648371  -5.6026041716   4.8489403124
O351  -6.0881007250   4.6342334190   3.1442900352
O352  -0.7076492705  -3.2400606828   8.4025927259
O353   7.5457001356  -6.8383058642   3.3037481333
O354   3.5291195857  -8.3080771689   4.4676076425
O355  -1.9041562869   8.8343899921   7.0408364002
O356   5.1407597041   8.9910892103  -4.9377840535
O357   3.2115181464   4.6981920967 -10.3694127297
O358  -2.6562126550   7.5837044976  -2.6163965938
O359   1.4777072584   3.3485431938  -9.0232992719
O360  -1.4560240932  -4.9740113844  -8.9707851351
O361  -6.1713380039   3.1531067255   5.8071139505
O362  -3.6484092639  -9.6873975981   1.6378297367
O363  -9.2997155463   1.0560809156  -4.8154867930
O364   8.1438979117  -5.0142412420   7.2052532633
O365  -3.3000545665  -6.1114552253  -4.5352924288
O366   7.7561134350  -4.4284168473  -2.0891225563
O367   1.8290081808  10.3961934862   1.5232932698
O368   4.2630834964  -5.6848921823  -6.5373291715
O369  -2.1139890370  -4.9957918645   6.0002386858
O370   2.8551404776   8.6499606082  -1.1627248515
O371   4.9557072462  -6.7168162803   2.7897291400
O372   5.7372290060   3.4664498685   6.5962027944
O373   2.9714883784   8.3513636057  -6.0361624084
O374  -5.9966859556   1.5040933085   7.9892987015
O375  -3.5712909792   5.1310818518   8.9650019193
O376  -2.0771714036   0.3203290544   8.8385302947
O377  -9.3975298132   5.4534886403   3.3472442905
H378  -1.6306256403 -11.3478012299  -3.0498664234
H379  -2.5327020485 -10.6523598792  -4.0466635148
H380   5.5258832807  -6.9818382140   8.7501603790
H381   5.1587168775  -6.0112158336   7.6483137531
H382 -10.7342685258   3.9240342132  -5.4802680775
H383  -9.4679116518   4.5880198089  -5.9767037293
H384   3.0680068202   7.2854572870   9.1724806403
H385   2.9418683568   7.4305217144   7.6711377881
H386   5.3717738384   6.4883825022  -7.3322219726
H387   4.1146677154   6.5371700704  -8.1738210035
H388   8.2014770806   1.7908255790  -2.4147382537
H389   7.6813823197   2.7996477303  -1.4133570741
H390  -7.8142743651   2.7452131690  -9.1736081226
H391  -6.9857375610   1.4950402507  -9.3775183935
H392   4.0008773200   5.7534105178   5.4637317779
H393   5.2840966440   5.0160109600   5.7808674253
H394   2.3180707553  -8.8813115547  -3.3319044308
H395   2.4252820435 -10.3245261006  -2.8884831029
H396   7.3188398286   0.4935821411  -7.1506255579
H397   6.0308827440   1.0246968896  -6.5589595779
H398 -10.7564200667   2.7570912193  -0.9643200834
H399 -10.0079327287   3.1325020451   0.2965599175
H400  -2.9626308611   6.2933812070  -6.6672419430
H401  -2.1835863215   5.1493591196  -6.0546343780
H402  -1.0517446816 -10.7297057255  -0.7087135282
H403  -0.3586258168 -11.6191408937  -1.7184047091
H404  -2.8045290906   8.0503030773   0.1222118339
H405  -4.0905025022   8.8073915809   0.3753409364
H406  -1.6998857436  -2.5938839358 -11.6045960063
H407  -0.3078444819  -2.7636976766 -11.0350616535
H408  -1.1542757418  -3.5182481874  -7.7762197651
H409  -1.6591290942  -2.0927988338  -7.8410440879
H410   2.1576695783  -0.7047997183  10.8053503358
H411   3.4753985366  -0.4398732981  10.1093694852
H412   2.4125359167   3.0424952912   6.6019218759
H413   2.9928457940   1.7037255911   7.0043160810
H414   0.7411323538  -9.3016684440   3.4158886806
H415   1.8834079865  -8.3238868444   3.5894815447
H416  -0.1902666601   2.4473907233  10.5496705626
H417  -1.3986985039   1.7542820218   9.9578278751
H418   0.1586969460  -8.2732708119  -4.2386022878
H419   0.4078208043  -6.8665234950  -3.7386180384
H420   0.3651047458   2.9554222744 -10.0461455533
H421  -0.5176814632   1.7441638887 -10.2571588050
H422   0.2448961136  -1.0206851794  10.5140075313
H423   0.2340301221  -2.2953958216   9.6979317572
H424   7.7088622619  -7.0415860812  -1.6847387022
H425   8.8257416953  -6.9098687606  -0.6717155837
H426   4.5788528454  -9.7658907803  -3.0445357671
H427   5.9914562175 -10.2284517932  -3.3301473610
H428  -1.3209316583  -7.6212860717  -6.7632112868
H429  -2.5742439048  -7.5250066889  -5.9200484003
H430  -7.4715868170   3.8160793552  -3.7893862216
H431  -7.8383437205   3.3246025022  -5.1731943140
H432   8.1303137394  -0.3317210685  -9.4553555052
H433   8.6874824664  -0.1411404311  -8.0610001020
H434  -9.1763998265   4.6632124475  -2.1045490293
H435  -9.3100574718   4.4659691007  -3.5992783211
H436  -7.3663318751   5.7923898184  -1.8206624577
H437  -7.0446767498   5.5724331481  -0.3580818604
H438   8.1757651047  -3.2486339643   3.0619846826
H439   6.9573354161  -4.0812156072   3.3984692471
H440  -4.7525519237  -4.4637348943   5.0221230558
H441  -4.0786301283  -4.4038323031   6.3760898402
H442  -1.0700874766   9.5208709539   4.2632979537
H443  -0.4968308613   9.7982164725   5.6364116694
H444   4.1096946246   6.9500766909  -3.1111455200
H445   5.6136066554   6.7834616618  -3.0727658939
H446  -8.0802272884  -6.1294347293  -4.6908309156
H447  -7.6138280530  -6.2641152291  -6.1244689020
H448  -7.6810302746  -0.9923919550  -6.7457422831
H449  -7.8570680565   0.0179965689  -7.8588957721
H450  -6.5419975559  -4.5202498280   2.5300949827
H451  -7.1745820021  -5.6483667679   3.3163354348
H452   0.5749505282  -7.8891020680  -9.0901140276
H453   0.8805177417  -6.4152686384  -9.2495776911
H454  -4.0447625045   5.8841464064   5.9104075317
H455  -3.2319669107   5.5238281617   7.1353642841
H456   0.9047385512   5.2967923236  -9.6141809838
H457   0.1004352298   5.9552972122 -10.7143866187
H458  -5.9866602665   7.8387224403  -0.6140869606
H459  -6.5917595528   9.1037266993  -0.0443466351
H460  -4.2043217577   4.1596227043  -6.0097924184
H461  -5.6777300543   3.8407599130  -5.8742215082
H462  -2.1738632735   9.0252561657  -4.7785954363
H463  -1.1339952285   8.2489449162  -5.5576976459
H464   5.6604233002  -6.5905036037  -2.2353992271
H465   5.3719208499  -6.9904704225  -0.8043933431
H466   2.4591828949  -6.3439309601   6.0269904890
H467   2.3317682962  -7.8102770953   5.6740322880
H468  10.7543871561   1.3986925160  -3.8654841924
H469  10.7127565892   2.8652318020  -4.2376593909
H470   2.4408923620  -8.4504298649  -7.8856663646
H471   3.9075250615  -8.4613742482  -7.5116961714
H472   1.5888294450  -1.5049526540  -8.0560939041
H473   0.6239409807  -2.6369593296  -7.7758509776
H474  -2.9477296266  -9.1046909001  -2.4134449270
H475  -2.6095284564  -8.1827463605  -1.2616536289
H476  -9.0225279170   4.3051938642   6.1773928594
H477  -8.0763603862   3.2180689587   5.7148872882
H478  -3.3988757019   9.9635387055   3.5250154672
H479  -2.6105319656   9.3788365001   2.3727904699
H480  -4.5189731530  -2.8637314712  -5.6692932926
H481  -3.8930684873  -3.6724406612  -6.7851865471
H482   1.4240607968   6.2401645968   5.1437913595
H483   1.7753605797   5.7992984089   6.5485014459
H484 -10.1753576201  -2.8214616035   2.7713595278
H485 -10.1864466545  -2.6423555323   1.2684347098
H486  -6.6289388398  -3.8748818237  -3.2660998869
H487  -6.5235116100  -4.7833679230  -4.4721359836
H488  -4.6016827306  -7.1541883154  -1.3131074218
H489  -4.8598288178  -5.7150591909  -1.7045827346
H490  -8.6042098643   0.0588055090  -3.6181125677
H491  -7.6922891477  -0.0884803496  -2.4190744355
H492  -8.6982832930  -0.1914674394   7.1685352308
H493  -7.4217015653  -1.0042921680   7.1938337113
H494  -8.0280519336   2.8212859903   1.2099850766
H495  -7.9742976590   3.4178810508   2.6000101741
H496   8.1695855856   7.2929355537  -3.3125325562
H497   7.7214485208   6.5196358660  -4.5340749108
H498   3.6449886654  -3.9033907455   6.6439932095
H499   4.9435874892  -3.6699845776   7.3857125741
H500   6.0475829510  -2.3778213603  -6.5831493240
H501   6.2497390720  -1.4508425835  -7.7624831233
H502  -5.3399385018  10.3298290787   3.1827501600
H503  -6.0366430065   9.0531171720   3.6017901346
H504   1.0666804574   4.2408939676   8.4504388452
H505   0.7849312530   5.7079087959   8.6943032324
H506   4.2041599730   4.8267232545   7.6314129811
H507   3.0230479949   4.4272800060   8.4895531482
H508   8.8555532376   2.2639130237   0.7412141895
H509   9.0290425402   2.9024118437   2.1025391613
H510   6.3611869332  -6.0295113143  -4.3969941771
H511   4.9791426379  -5.7832316203  -4.9629313098
H512  -1.1176920843  -0.0887006283  -8.3622990930
H513  -0.6271049498  -0.6668161770  -9.6722959005
H514  -4.9213052056   4.3578327475  -8.6129583757
H515  -5.7466766096   3.5957531937  -9.6273457569
H516  -5.6367114943  -7.1722615475   0.2812626741
H517  -6.0948704417  -7.0268894828   1.7165125832
H518   8.0511415657  -3.0451763573  -7.3440266087
H519   9.0243453375  -2.0169780044  -6.8086131930
H520  -7.3550664531  -3.9741720319  -6.3843154681
H521  -6.7067753009  -3.4685003272  -7.6551418406
H522   7.4694442010   7.5307663923  -1.1256617405
H523   6.2226225628   6.7143678558  -0.8612488206
H524   8.4333704903  -5.2822365289   1.5179030709
H525   9.0271631603  -4.4882972584   0.3742004610
H526   9.2391263143  -1.7133134424   1.3602374784
H527   7.7606302821  -1.4073301757   1.4670489163
H528   0.9014992848   9.1590545689  -4.1332054223
H529   1.1661447506   8.0037030839  -5.0745399449
H530  -3.4322627852   7.7363374165   3.6195790419
H531  -4.8528623388   7.3121742213   3.3146733974
H532   2.5253839825  -0.2220090876 -11.3615305872
H533   3.0099377300  -0.0435242749  -9.9387390362
H534  -5.2398065322  -5.4590858431  -7.8415098237
H535  -4.0883465076  -6.1966729961  -7.1925953738
H536   9.3742619095  -1.1896448945  -4.2207158936
H537  10.2755082108  -1.6935121187  -3.1139829154
H538   2.8420184687   4.9578522883  -6.5373525819
H539   2.3941295581   3.6721825979  -5.8759646995
H540  -7.8511765275   7.6731498276   2.6260799519
H541  -7.5493669669   6.4413370096   3.4522355852
H542   3.1540993479  -5.2428454536  -9.0689546966
H543   2.0952103643  -4.2651123674  -8.6065943474
H544   1.3899510943  -7.3861111905  -6.8173735088
H545   0.6548557852  -6.0631880143  -6.7951447827
H546   0.7909545783  -6.3010265879   7.3238422195
H547  -0.4479780859  -6.6418162072   8.1237754973
H548  -4.2624815937   5.2363951080  -3.1540552069
H549  -3.9919080459   6.6973687105  -3.4427263829
H550   7.7618517308   5.5848658359   2.1815569328
H551   8.3612287119   5.5628065566   0.7918643112
H552   9.6483559085   1.3130757254   3.3125154295
H553  10.1213774908  -0.1166977113   3.4641184057
H554  -6.3678586106   5.4764939112   6.6709071925
H555  -6.3616874165   6.8048445031   5.9453511427
H556   0.1442593693   7.3666207710  -8.6518125166
H557   0.8241443059   7.9282901576  -7.4216625530
H558  -3.2450940260  -2.9990244521   8.7417520461
H559  -3.4584106194  -4.0653143556   9.7946085572
H560  -0.1174416711 -11.5208221531   4.3833230260
H561  -1.1180172866 -10.4328174371   4.0576251049
H562  10.8135315398  -0.9341066031  -1.0634218990
H563  11.2801000263   0.0501497607  -2.1143920306
H564  -5.4268803426  -7.7974442235  -3.6009777807
H565  -5.9159973651  -8.3827925569  -2.2936458309
H566 -10.4696777381  -3.2430310735  -2.4441326031
H567  -9.7255491546  -1.9531176517  -2.7150218339
H568  -4.5675033422   3.5647894246  10.6817376822
H569  -3.3669385422   2.7481810883  10.2542099683
H570   8.5518484605   4.7651550384  -6.4289556147
H571   8.3342085685   4.1314776130  -5.0717265412
H572 -10.7152674859  -5.7743645775  -2.0715029809
H573  -9.5471456098  -5.5099629932  -2.9970125944
H574  -5.1352669443   0.2342749860 -10.2172930013
H575  -4.9011916150   1.4428327698  -9.3366217896
H576   5.9215294260   3.0998318934   9.6328148167
H577   7.2189587521   2.3205303574   9.6515556757
H578 -10.0563840003  -3.5420370647   7.0997341462
H579 -10.1607271081  -2.8604149097   5.7523334212
H580   6.6758658048  -2.0603054369   6.8809330739
H581   6.9709614356  -3.5441268636   6.9275967876
H582  -7.5298469095   7.1881796111  -3.8061510033
H583  -6.0549432048   7.1697631385  -4.1457166898
H584   0.6664445791   5.3858746735  -5.7928041232
H585  -0.6080946074   6.2015329039  -5.8279676493
H586  -2.4570775003  -2.6270355108  10.8488927444
H587  -2.1666399870  -1.2078313864  11.2876303243
H588   6.3416408855  -9.3497970747   1.3286896822
H589   6.5481668273  -8.9854349301   2.7831903604
H590  -0.2554081825   3.1259685093  -7.9328892233
H591  -0.9538410278   1.8076842268  -8.1884338793
H592   5.9999831674   7.1719844366   2.5130263087
H593   5.8776779414   6.6195567252   3.9168959662
H594   0.3403164835 -11.0134378962  -5.4211675256
H595  -1.0335129378 -10.5123147674  -5.8116202001
H596   1.5873437853   9.4453546552   4.2382619308
H597   2.3658991512   8.4400327762   5.0593370930
H598  -7.7483230849  -3.3380582844   6.4024401637
H599  -6.2482042158  -3.4174389226   6.2171645501
H600  -5.7679528215   7.1588521622  -6.4882835147
H601  -6.0436700981   5.7047750501  -6.8054974731
H602   1.4881593514  11.6389381664  -3.1407009397
H603   0.9029281493  10.8533354115  -1.9868735211
H604   5.5586794541  11.3797694618  -1.2612134001
H605   5.8702003241   9.9035067730  -1.1404318568
H606  -9.4222018978  -0.0850396041   2.5068155466
H607  -9.3199309840   1.4227083608   2.4218349932
H608   8.1882441981  -4.3789728057  -5.7525208375
H609   8.7685181252  -5.0337035953  -4.5173711613
H610  -4.2353307092  -6.7133479354   4.9548976264
H611  -2.9647751692  -6.8690586595   5.7626276247
H612   3.9716864211  -9.2633201536   0.1086759684
H613   5.0902868337  -9.2165234585  -0.9099152872
H614   1.0397667027   0.5265753940  -8.4669383566
H615   2.2797223245   1.3260659198  -8.1288408628
H616   4.2847281678  -3.7652997165   9.3101072737
H617   5.0039885496  -2.5021674157   9.7321810278
H618  -3.0679995694  -9.3897065863   5.0555166712
H619  -3.1039933326  -9.6136268668   3.5590043535
H620 -11.4201666942   0.4991389438  -2.3221355892
H621 -10.1373330561   0.4063773257  -1.5241894135
H622   7.1674971559   1.0813256632  -4.7343728776
H623   8.4572215921   1.2758710357  -3.9664223996
H624   7.4510560089   0.7512335712   6.0643896905
H625   8.2387893148   0.7797178948   4.7722403795
H626   4.7504492192   1.9221216028  -8.5681055599
H627   4.4619317129   2.9090816155  -7.4574064369
H628   3.6649643068  -6.0377019639  -3.2687366676
H629   3.2954852995  -7.4845896103  -3.5156908372
H630   9.3850800353  -3.5479225389  -2.2298124118
H631  10.6005590719  -3.4498948749  -1.3331596092
H632   5.1871101680  -3.6480302314  -8.4038008499
H633   5.7686635140  -4.8080058490  -9.1830551295
H634   5.7326483820  -0.3353299779   8.5574258046
H635   4.2949777062  -0.4472434489   8.0974656292
H636  -1.1401987766  11.5223761784   0.3316264202
H637  -1.0740594132  10.1104797470   0.8730680252
H638   1.9576901563  -5.1454009494   9.5871674127
H639   3.2013089345  -5.0068266041  10.4387509056
H640   1.4295910195 -10.4216025923  -0.5977649206
H641   2.6561409710 -11.1881332749  -0.1516809722
H642  11.1320188586   1.6788109482  -0.7060975027
H643  10.3124767222   2.7790566492  -1.3454683217
H644  -2.1851095929  -8.6254561614   9.0114316443
H645  -2.5813029262  -7.2768595278   8.4499132363
H646 -11.0183455600   0.3857374531   5.7563004697
H647 -10.3882060191  -0.9839281682   5.6224154275
H648  -6.5426700264  -5.3818209230  -0.9479949250
H649  -7.7823643979  -4.9443234415  -0.1978357559
H650  -3.4800806393  -1.0566181501  -7.3633618919
H651  -3.4756931992  -0.2130771602  -8.6201054253
H652   7.8829252472   0.5647319462   8.3635737956
H653   8.7740170733  -0.0500189693   7.3057356089
H654   1.8529120647   2.4205831093   9.0698386785
H655   2.1203519629   1.6792344894  10.3620705016
H656  11.2618693607  -1.5998339573   1.8921307178
H657  11.2671094520  -0.4187188130   0.9455978249
H658  -8.6085733387  -4.9734415162   5.3538757781
H659  -8.4287684650  -6.4577246128   5.1181665152
H660  -6.0884502499   5.5592640163   2.8984028416
H661  -5.2389801260   4.3075711165   2.8469212599
H662  -1.0787487345  -2.8589926218   7.6068449262
H663  -0.4492404719  -4.1253362018   8.1463616032
H664   7.6308473782  -5.9790562470   3.7167642134
H665   8.4030807371  -7.2470303846   3.4220063706
H666   4.0940774557  -7.7873946754   3.8967709005
H667   4.1311929357  -8.8799945732   4.9435912598
H668  -1.9087712155   8.0406013099   6.5060275835
H669  -2.8038173716   9.1581521328   6.9969018003
H670   5.3623600268   9.8837380286  -5.2027625888
H671   5.8857435724   8.4636956462  -5.2258765813
H672   3.1029146989   5.0042081225 -11.2698024915
H673   4.0042556055   5.1371321567 -10.0611252264
H674  -2.4892415836   6.9857003916  -1.8879365808
H675  -1.8170410247   8.0189940223  -2.7662506711
H676   1.7129818227   3.6528069652  -8.1468224172
H677   2.1498648534   3.7202346407  -9.5944313720
H678  -2.3128813870  -5.3616426004  -9.1487735013
H679  -0.8285842652  -5.6353322799  -9.2625319010
H680  -6.0259438663   2.8064948389   6.6873769707
H681  -5.3301766027   3.0423677456   5.3640263570
H682  -3.3939136076 -10.5641380070   1.3502528665
H683  -4.4253698834  -9.4809448988   1.1183571978
H684  -9.5482142600   1.9442660644  -5.0714511865
H685  -8.9125273414   0.6785857803  -5.6052493882
H686   8.3191420095  -4.6920861136   8.0893617517
H687   7.5516848794  -5.7552196481   7.3332257843
H688  -3.9014636570  -5.6745167816  -5.1382303544
H689  -3.4895013284  -5.7203237296  -3.6824921488
H690   7.3076321500  -3.6982283282  -1.6627055028
H691   7.1745409760  -5.1770128107  -1.9567601806
H692   1.9226593017   9.4753184069   1.7669339806
H693   0.9277668846  10.4706155382   1.2096569770
H694   4.6794618379  -5.4730733572  -7.3727357205
H695   3.6858451907  -6.4217370053  -6.7373238845
H696  -1.9383068349  -4.2892727154   5.3788622332
H697  -1.2681902456  -5.1663036966   6.4145964533
H698   3.6782947140   9.1092976813  -0.9966863129
H699   2.3429416689   9.2602644342  -1.6931245690
H700   4.8009832945  -6.1346664228   2.0458848806
H701   5.8725999248  -6.5702550862   3.0220433073
H702   6.1837591399   3.1782755956   7.3922610007
H703   5.4317602209   2.6571570877   6.1864757435
H704   3.2050397225   7.6004708796  -6.5818327518
H705   3.7884902209   8.5945714263  -5.6008462182
H706  -5.6478251418   1.5837791908   8.8770422077
H707  -6.5684413658   0.7372807777   8.0244630824
H708  -4.4851753780   4.8966972455   9.1263134255
H709  -3.1641166146   5.1180981376   9.8311327986
H710  -2.6859203770   0.4865877098   8.1188602405
H711  -2.5957623573  -0.1579960378   9.4853770841
H712  -9.2757734113   5.9143975458   2.5172559776
H713 -10.1437228371   4.8743562453   3.1925061887
